LAMMPS (19 Oct 2016)
# equation of state for LJ

variable temp equal 0.5
variable rho  equal 0.85

units lj
atom_style atomic

lattice    fcc 0.85
Lattice spacing in x,y,z = 1.67577 1.67577 1.67577
region box block 0 5 0 5 0 5
create_box 1 box
Created orthogonal box = (0 0 0) to (8.37884 8.37884 8.37884)
create_atoms 1 box
Created 500 atoms
mass       1 1.0

pair_style lj/cut 2.5
pair_coeff 1 1 1.0 1.0 2.5

velocity   all create 0.5 87287

neighbor   0.3 bin
neigh_modify every 20 delay 0 check no

fix        1 all nvt temp 0.5 0.5 100
dump       1 all custom 70000 dump_t0.5_r0.85.lammpstrj id type x y z
thermo     2000
thermo_style  custom step press vol temp
thermo_modify flush yes

run 500000
  1 neighbor list requests
  update every 20 steps, delay 0 steps, check no
Step Press Volume Temp
0   -5.7941749    588.23529          0.5
Averages over the last 126 of 251 rows, steps 250000 to 500000:
Press Volume Temp
-2.13 588.235 0.501702
Loop time of 167.39 on 1 procs for 500000 steps with 500 atoms
